-- Generated [
-- Format      : ECLIPSE keywords (ASCII)
-- Exported by : Petrel 2019.2 Schlumberger
-- Generated ]

RUNSPEC

ENDSCALE                               -- Generated : Petrel
  /

TITLE                                  -- Generated : Petrel
'MODEL 2020'

WELLDIMS                               -- Generated : Petrel
  30 194 5 19 5* 194 /

START                                  -- Generated : Petrel
  1 JAN 2018 /

API                                    -- Generated : Petrel

WATER                                  -- Generated : Petrel

OIL                                    -- Generated : Petrel

GRIDOPTS                               -- Generated : Petrel
  NO 21 /

PETOPTS                                -- Generated : Petrel
INITNNC /

REGDIMS                                -- Generated : Petrel
  10 2 1* 21 /


MONITOR                                -- Generated : Petrel

CPR                                    -- Generated : Petrel
  /

MULTOUT                                -- Generated : Petrel

FIELD                                  -- Generated : Petrel

DIMENS                                 -- Generated : Petrel
  231 137 330 /

TABDIMS                                -- Generated : Petrel
  3 15 44 1* 10 7* 3 /

FAULTDIM
10000 /

MESSAGES
6* 1000000 1000000 1000000 1000000 /


UDQDIMS
2* 1000 4* 200 /

UDADIMS
200 1* 200 /

VFPPDIMS
 20 10 10 10 10 20 /

VFPIDIMS
 20 10 7    /

TRACERS
1* 3 /

-------------------------------------------------------------------
GRID

INCLUDE                                -- Generated : Petrel
'SIMULATION_1_GRID.INC' /

NOECHO                                 -- Generated : Petrel

GDFILE                                 -- Generated : Petrel
SIMULATION_1_GRID.EGRID /

INCLUDE                                -- Generated : Petrel
'SIMULATION_1_PROP_PERMX.GRDECL' /

INCLUDE                                -- Generated : Petrel
'SIMULATION_1_PROP_PERMY.GRDECL' /

INCLUDE                                -- Generated : Petrel
'SIMULATION_1_PROP_PERMZ.GRDECL' /

INCLUDE                                -- Generated : Petrel
'SIMULATION_1_PROP_PORO.GRDECL' /

INCLUDE                                -- Generated : Petrel
'SIMULATION_1_PROP_NTG.GRDECL' /

INCLUDE                                -- Generated : Petrel
'SIMULATION_1_PROP_ACTNUM.GRDECL' /

INCLUDE                                -- Generated : Petrel
'..\20200521_HM\20200521_HM_PROP_FLUXNUM.GRDECL' /

INCLUDE                                -- Generated : Petrel
'..\20200521_HM\20200521_HM_PROP_MULTNUM.GRDECL' /

ECHO                                   -- Generated : Petrel

INCLUDE
'../../../INCLUDE/GRID/20200518_FAULTS_GFF10S.INC' /

INCLUDE
'../../../INCLUDE/GRID/20200518_FAULTS_GFF40S.INC' /

INCLUDE
'../../../INCLUDE/GRID/20200518_FAULTS_SH20_30.INC' /

MINPV
1000 /

PINCH
/

MULTIPLY
  PERMZ 0.00144   1 231 1 137   1 125 / --Gff10s
  PERMZ 0.042562   1 231 1 137 126 285 / --Gff40s
  PERMZ 0.000211   1 231 1 137 286 330 / --Twins
  /

MULTREGT
  1* 1* 0.0 2* F /
   3  4 1   2* F /
   5  6 1   2* F / 
   5  7 1   2* F /
   6  7 1   2* F /
   8  9 1   2* F /
   1 17 1   2* F /
  10 16 1   2* F /
  /

MULTFLT
'F19F'	0.022685034	/
'F1C_1F'	0.0024896708	/
'F1C_1S'	0.74834974	/
'F1C_2F'	0.059271932	/
'F1C_2S'	0	/
'F1C_2T'	0.0057401891	/
'F1T_2S'	0.32035676	/
'F2_1T'	0.039784956	/
'F2_2T'	0.63557578	/
'F2_3T'	0.1709398	/
'F2_TS'	3.4939279e-05	/
'F2C_1F'	0.0040822832	/
'F2C_1S'	0.0039811387	/
'F2C_2F'	0.32704485	/
'F2C_2S'	0.00045599289	/
'F2EXT_T'	0.0051549787	/
'F3_R1F'	0.015007036	/
'F3_R1NT'	0	/
'F3C_R2F'	0.23088817	/
'F3C_R2S'	0.051338162	/
'F4CT'	0.0019151599	/
'F5NE_RF'	0.88182885	/
'F5NE_RS'	0.29638544	/
'F5NE40F'	0.94330637	/
'F5NE40S'	0.80429395	/
'F5NEF'	0.094802629	/
'F5NES'	0	/
'F6NW1E2F'	0.02662599	/
'F6NW1E2S'	0	/
'F6NW1E3F'	0.24632445	/
'F6NW1F'	0	/
'F6NW2F'	0.092513518	/
'F6NW2S'	0	/
'F6NW2T'	0.057684486	/
'F7SWF'	0	/
'F7SWS'	0.005747913	/
'F7SWT'	0.87821537	/
'GFF10_6'	0	/
'GFF40_1'	0.081841808	/
'GFF40_B3'	0.28446866	/
'TWINS_X'	0	/
'F6NW1E3T'	0	/
'GFF10E1'	0	/
'GFF10E2'	0	/
'GFF10E3'	0	/
'GFF40E1'	5.1939391e-05	/
'TWINS_E1'	0.23723565 /
'TWINS_E2'	0 /
'TWINS_E3'	0.038342363 /
'TWINS_E4'	0.0015040713 /
'TWINS_E5'	0.040873671 /
'TWINS_E6'	0.12723244 /
/

GRIDFILE
 0 1 /

INIT

EDIT

-------------------------------------------------------------------
PROPS

INCLUDE                                -- Generated : Petrel
'SIMULATION_1_PROPS.INC' /

REGIONS

NOECHO                                 -- Generated : Petrel

INCLUDE                                -- Generated : Petrel
'..\20200521_HM\20200521_HM_PROP_SATNUM.GRDECL' /

INCLUDE                                -- Generated : Petrel
'..\20200521_HM\20200521_HM_PROP_PVTNUM.GRDECL' /

INCLUDE                                -- Generated : Petrel
'..\20200521_HM\20200521_HM_PROP_ROCKNUM.GRDECL' /

INCLUDE                                -- Generated : Petrel
'..\20200521_HM\20200521_HM_PROP_EQLNUM.GRDECL' /

INCLUDE                                -- Generated : Petrel
'..\20200521_HM\20200521_HM_PROP_FIPNUM.GRDECL' /

INCLUDE                                -- Generated : Petrel
'..\20200521_HM\20200521_HM_PROP_FIPLEASE.GRDECL' /

ECHO                                   -- Generated : Petrel

-------------------------------------------------------------------
SOLUTION

INCLUDE                                -- Generated : Petrel
'..\20200521_HM\20200521_HM_SOL.INC' /

SUMMARY

INCLUDE                                -- Generated : Petrel
'..\20200521_HM\20200521_HM_SUM.INC' /

INCLUDE
'../../../INCLUDE/SUMMARY/20200224_COMPSMRY.INC' /

-------------------------------------------------------------------
SCHEDULE

INCLUDE                                -- Generated : Petrel
'SIMULATION_5_SCH.INC' /

