-- This reservoir simulation deck is made available under the Open Database
-- License: http://opendatacommons.org/licenses/odbl/1.0/. Any rights in
-- individual contents of the database are licensed under the Database Contents
-- License: http://opendatacommons.org/licenses/dbcl/1.0/

-- Copyright (C) 2016 Statoil

-- NOTE: This deck is currently not supported by the OPM
-- simulator flow due to lack of support for LGR.

-- This case is created for testing flow diagnostic implementations
-- in ResInsight. It is a simple shoe-box grid with an added fault
-- giving non-neighboring connections and two added local grid refinements. 

--======================================================
--DAILY 3D OUTPUT for ORIGEN TEST!!!!!
--======================================================

RUNSPEC  ===============================================================

TITLE
 SIMPLE 2PH MODEL WITH SINGLE FAULT AND LGR

DIMENS
    20  20  10 / 

METRIC

OIL

WATER

TABDIMS
    2*    24 2*    20    20 1*     1 7* /
EQLDIMS
    2* 100 2* /
REGDIMS
    6* /
WELLDIMS
       12   100     4    12     0     0     0     0     0     0     0     0 /

TRACERS
-- NOTRAC NWTRAC NGTRAC NETRAC Diff/NODiff
      0      2     0     0      'DIFF' /

ENDSCALE
/

NSTACK
  25 /
START
1 DEC 1981 /


MULTOUT

GRID    ===============================================================

INCLUDE
 '../../include/SHIFTTOP.GRDECL'
/


PORO
4000*0.3
/

PERMX
2000*80.0
800*150.0
1200*50.0
/

PERMY
2000*80.0
800*150.0
1200*50.0
/

--For Origen Test we'll overwrite this with a simply kvkh formula below
PERMZ
2000*15.0
800*25.0
1200*15.0
/

NOECHO


INIT


EQUALS
'MULTX' 3.901E-1 /
'MULTY' 4.638E-1 /
/

-- kz = sqrt(kx+ky)*kvkh
EQUALS
PERMZ 0 /
/
OPERATE
PERMZ 6*  POLY  PERMX  1 0.5 /
PERMZ 6*  POLY  PERMZ  1 0.5 /
PERMZ 6*  MULTA PERMZ  3.573E-1 /
/





PROPS     ===============================================================

DENSITY
    900 1000    1 /
PVCDO   -- pref  Bo    Co       muo    vo
           400   1.05  1.0E-05    5      0
    /

PVTW
         400    1    1.0E-06    1      0 /

ROCK
    400  3.259E-5 /

--Corey parametrization using exponent of 2
SWOF
 0.1000	0.0000	1.0000	0.0000
 0.1500	0.0020	0.8789	0.0000
 0.2000	0.0078	0.7656	0.0000
 0.2500	0.0176	0.6602	0.0000
 0.3000	0.0313	0.5625	0.0000
 0.3500	0.0488	0.4727	0.0000
 0.4000	0.0703	0.3906	0.0000
 0.4500	0.0957	0.3164	0.0000
 0.5000	0.1250	0.2500	0.0000
 0.5500	0.1582	0.1914	0.0000
 0.6000	0.1953	0.1406	0.0000
 0.6500	0.2363	0.0977	0.0000
 0.7000	0.2813	0.0625	0.0000
 0.7500	0.3301	0.0352	0.0000
 0.8000	0.3828	0.0156	0.0000
 0.8500	0.4395	0.0039	0.0000
 0.9000	0.5000	0.0000	0.0000
/

EQUALS
  KRW 2.993E-1 /
/

TRACER
 'TR1' WAT /
 'TR2' WAT /
/

TRACITVD
 /



REGIONS   ===============================================================

SOLUTION  ===============================================================
EQUIL
       0  400    500   0 /

RPTSOL
 RESTART=2  /

RPTRST
 FLORES  /

TBLKFTR1
  4000*0 /

TBLKFTR2
  4000*0 /


SUMMARY   ===============================================================
ALL

WTPRTR1 
/

WTPRTR2 
/

WTPTTR1 
/

WTPTTR2 
/

WTITTR1 
/

WTITTR2 
/


SCHEDULE   ===============================================================

INCLUDE
 './SIMULATION_3_SCH.INC'
/

END



